LTspice 24.0.9 for Windows
Circuit: * Z:\home\rej\repos\krzempol_current_source\ltspice_sym\furnace_power.asc
Start Time: Sun Mar 24 17:58:55 2024
solver = Normal
Maximum thread count: 4
tnom = 27
temp = 27
method = modified trap
.OP point found by inspection.
Total elapsed time: 0.469 seconds.

